<?xml version="1.0" encoding="UTF-8"?>

<!-- generated on 2024-09-29 12:12:45 by Eclipse SUMO netedit Version 1.11.0
<configuration xmlns:xsi="http://www.w3.org/2001/XMLSchema-instance" xsi:noNamespaceSchemaLocation="http://sumo.dlr.de/xsd/netconvertConfiguration.xsd">

    <input>
        <sumo-net-file value="/home/veins/src/FINAL/network1.net.xml"/>
    </input>

    <output>
        <output-file value="/home/veins/src/FINAL/network1.net.xml"/>
    </output>

    <processing>
        <geometry.min-radius.fix.railways value="false"/>
        <geometry.max-grade.fix value="false"/>
        <offset.disable-normalization value="true"/>
        <lefthand value="false"/>
    </processing>

    <junctions>
        <no-turnarounds value="true"/>
        <junctions.corner-detail value="5"/>
        <junctions.limit-turn-speed value="5.5"/>
        <rectangular-lane-cut value="false"/>
    </junctions>

    <pedestrian>
        <walkingareas value="false"/>
    </pedestrian>

    <report>
        <aggregate-warnings value="5"/>
    </report>

</configuration>
-->

<net version="1.9" junctionCornerDetail="5" limitTurnSpeed="5.50" xmlns:xsi="http://www.w3.org/2001/XMLSchema-instance" xsi:noNamespaceSchemaLocation="http://sumo.dlr.de/xsd/net_file.xsd">

    <location netOffset="0.00,0.00" convBoundary="-57.75,-37.46,160.55,122.58" origBoundary="-10000000000.00,-10000000000.00,10000000000.00,10000000000.00" projParameter="!"/>

    <edge id=":J12_0" function="internal">
        <lane id=":J12_0_0" index="0" speed="6.08" length="7.58" shape="-53.47,121.13 -55.52,120.81 -56.99,119.92 -57.89,118.45 -58.21,116.41"/>
    </edge>
    <edge id=":J12_1" function="internal">
        <lane id=":J12_1_0" index="0" speed="3.91" length="2.53" shape="-55.01,116.35 -54.90,117.04 -54.60,117.53 -54.11,117.82 -53.43,117.93"/>
    </edge>
    <edge id=":J14_0" function="internal">
        <lane id=":J14_0_0" index="0" speed="13.89" length="14.38" shape="46.94,122.40 32.56,122.19"/>
    </edge>
    <edge id=":J14_1" function="internal">
        <lane id=":J14_1_0" index="0" speed="7.99" length="5.91" shape="46.94,122.40 43.09,121.78 41.39,120.72"/>
    </edge>
    <edge id=":J14_6" function="internal">
        <lane id=":J14_6_0" index="0" speed="7.99" length="8.30" shape="41.39,120.72 40.37,120.08 38.78,117.30 38.31,113.43"/>
    </edge>
    <edge id=":J14_2" function="internal">
        <lane id=":J14_2_0" index="0" speed="6.50" length="9.03" shape="41.51,113.50 41.80,115.96 42.82,117.73 44.55,118.81 46.99,119.20"/>
    </edge>
    <edge id=":J14_3" function="internal">
        <lane id=":J14_3_0" index="0" speed="8.03" length="14.19" shape="41.51,113.50 40.88,117.34 39.17,120.07 36.40,121.69 32.56,122.19"/>
    </edge>
    <edge id=":J14_4" function="internal">
        <lane id=":J14_4_0" index="0" speed="6.54" length="9.07" shape="32.60,118.99 35.05,118.67 36.82,117.64 37.90,115.89 38.31,113.43"/>
    </edge>
    <edge id=":J14_5" function="internal">
        <lane id=":J14_5_0" index="0" speed="13.89" length="14.39" shape="32.60,118.99 46.99,119.20"/>
    </edge>
    <edge id=":J16_0" function="internal">
        <lane id=":J16_0_0" index="0" speed="6.08" length="7.71" shape="157.94,119.44 157.60,121.52 156.67,122.99 155.16,123.86 153.06,124.13"/>
    </edge>
    <edge id=":J16_1" function="internal">
        <lane id=":J16_1_0" index="0" speed="3.90" length="2.57" shape="153.12,120.93 153.81,120.84 154.32,120.55 154.63,120.06 154.74,119.36"/>
    </edge>
    <edge id=":J17_0" function="internal">
        <lane id=":J17_0_0" index="0" speed="13.89" length="14.36" shape="159.75,42.32 159.36,56.67"/>
    </edge>
    <edge id=":J17_1" function="internal">
        <lane id=":J17_1_0" index="0" speed="8.13" length="5.82" shape="159.75,42.32 159.08,46.09 158.00,47.76"/>
    </edge>
    <edge id=":J17_6" function="internal">
        <lane id=":J17_6_0" index="0" speed="8.13" length="8.41" shape="158.00,47.76 157.34,48.79 154.53,50.43 150.64,51.00"/>
    </edge>
    <edge id=":J17_2" function="internal">
        <lane id=":J17_2_0" index="0" speed="6.66" length="9.21" shape="150.62,47.80 153.15,47.43 154.98,46.38 156.12,44.64 156.55,42.22"/>
    </edge>
    <edge id=":J17_3" function="internal">
        <lane id=":J17_3_0" index="0" speed="7.95" length="14.31" shape="150.62,47.80 154.52,48.33 157.28,49.98 158.89,52.76 159.36,56.67"/>
    </edge>
    <edge id=":J17_4" function="internal">
        <lane id=":J17_4_0" index="0" speed="6.44" length="9.03" shape="156.17,56.60 155.87,54.13 154.85,52.38 153.11,51.33 150.64,51.00"/>
    </edge>
    <edge id=":J17_5" function="internal">
        <lane id=":J17_5_0" index="0" speed="13.89" length="14.39" shape="156.17,56.60 156.55,42.22"/>
    </edge>
    <edge id=":J18_0" function="internal">
        <lane id=":J18_0_0" index="0" speed="6.08" length="7.76" shape="157.39,-35.82 159.48,-35.46 160.96,-34.52 161.81,-32.99 162.05,-30.87"/>
    </edge>
    <edge id=":J18_1" function="internal">
        <lane id=":J18_1_0" index="0" speed="3.90" length="2.59" shape="158.85,-30.97 158.77,-31.68 158.49,-32.19 158.00,-32.50 157.30,-32.62"/>
    </edge>
    <edge id=":J22_0" function="internal">
        <lane id=":J22_0_0" index="0" speed="3.91" length="2.55" shape="-53.64,-35.39 -54.33,-35.29 -54.83,-35.00 -55.13,-34.50 -55.24,-33.81"/>
    </edge>
    <edge id=":J22_1" function="internal">
        <lane id=":J22_1_0" index="0" speed="6.08" length="7.65" shape="-58.44,-33.85 -58.12,-35.92 -57.21,-37.40 -55.73,-38.29 -53.66,-38.59"/>
    </edge>
    <edge id=":J23_0" function="internal">
        <lane id=":J23_0_0" index="0" speed="13.89" length="14.53" shape="-59.23,53.79 -59.27,39.26"/>
    </edge>
    <edge id=":J23_1" function="internal">
        <lane id=":J23_1_0" index="0" speed="7.96" length="6.09" shape="-59.23,53.79 -58.74,49.89 -57.65,48.03"/>
    </edge>
    <edge id=":J23_6" function="internal">
        <lane id=":J23_6_0" index="0" speed="7.96" length="8.21" shape="-57.65,48.03 -57.11,47.12 -54.35,45.47 -50.45,44.95"/>
    </edge>
    <edge id=":J23_2" function="internal">
        <lane id=":J23_2_0" index="0" speed="6.45" length="9.03" shape="-50.48,48.15 -52.94,48.48 -54.69,49.52 -55.72,51.27 -56.03,53.74"/>
    </edge>
    <edge id=":J23_3" function="internal">
        <lane id=":J23_3_0" index="0" speed="8.01" length="14.26" shape="-50.48,48.15 -54.36,47.56 -57.12,45.88 -58.76,43.12 -59.27,39.26"/>
    </edge>
    <edge id=":J23_4" function="internal">
        <lane id=":J23_4_0" index="0" speed="6.52" length="9.09" shape="-56.07,39.29 -55.74,41.75 -54.70,43.51 -52.93,44.58 -50.45,44.95"/>
    </edge>
    <edge id=":J23_5" function="internal">
        <lane id=":J23_5_0" index="0" speed="13.89" length="14.44" shape="-56.07,39.29 -56.03,53.74"/>
    </edge>
    <edge id=":J25_0" function="internal">
        <lane id=":J25_0_0" index="0" speed="6.66" length="9.32" shape="-0.13,48.77 -2.64,49.06 -4.48,50.09 -5.65,51.86 -6.14,54.38"/>
    </edge>
    <edge id=":J25_1" function="internal">
        <lane id=":J25_1_0" index="0" speed="13.89" length="14.58" shape="-0.13,48.77 -14.70,48.49"/>
    </edge>
    <edge id=":J25_2" function="internal">
        <lane id=":J25_2_0" index="0" speed="7.97" length="14.27" shape="-0.13,48.77 -3.99,48.10 -6.69,46.36 -8.22,43.53 -8.59,39.63"/>
    </edge>
    <edge id=":J25_3" function="internal">
        <lane id=":J25_3_0" index="0" speed="6.47" length="9.03" shape="-5.39,39.78 -5.16,42.25 -4.19,44.04 -2.48,45.15 -0.03,45.57"/>
    </edge>
    <edge id=":J25_4" function="internal">
        <lane id=":J25_4_0" index="0" speed="13.89" length="14.62" shape="-5.39,39.78 -6.14,54.38"/>
    </edge>
    <edge id=":J25_5" function="internal">
        <lane id=":J25_5_0" index="0" speed="8.17" length="5.99" shape="-5.39,39.78 -6.13,43.62 -7.28,45.36"/>
    </edge>
    <edge id=":J25_12" function="internal">
        <lane id=":J25_12_0" index="0" speed="8.17" length="8.42" shape="-7.28,45.36 -7.93,46.36 -10.79,47.98 -14.70,48.49"/>
    </edge>
    <edge id=":J25_6" function="internal">
        <lane id=":J25_6_0" index="0" speed="6.72" length="9.40" shape="-14.67,45.29 -12.11,44.96 -10.25,43.90 -9.07,42.13 -8.59,39.63"/>
    </edge>
    <edge id=":J25_7" function="internal">
        <lane id=":J25_7_0" index="0" speed="13.89" length="14.64" shape="-14.67,45.29 -0.03,45.57"/>
    </edge>
    <edge id=":J25_8" function="internal">
        <lane id=":J25_8_0" index="0" speed="7.92" length="14.36" shape="-14.67,45.29 -10.75,45.89 -8.03,47.61 -6.49,50.44 -6.14,54.38"/>
    </edge>
    <edge id=":J25_9" function="internal">
        <lane id=":J25_9_0" index="0" speed="6.41" length="9.04" shape="-9.33,54.21 -9.55,51.73 -10.52,49.95 -12.24,48.87 -14.70,48.49"/>
    </edge>
    <edge id=":J25_10" function="internal">
        <lane id=":J25_10_0" index="0" speed="13.89" length="14.60" shape="-9.33,54.21 -8.59,39.63"/>
    </edge>
    <edge id=":J25_11" function="internal">
        <lane id=":J25_11_0" index="0" speed="8.13" length="5.99" shape="-9.33,54.21 -8.57,50.33 -7.44,48.63"/>
    </edge>
    <edge id=":J25_13" function="internal">
        <lane id=":J25_13_0" index="0" speed="8.13" length="8.40" shape="-7.44,48.63 -6.77,47.60 -3.92,46.02 -0.03,45.57"/>
    </edge>
    <edge id=":J26_0" function="internal">
        <lane id=":J26_0_0" index="0" speed="6.53" length="9.08" shape="48.83,50.17 46.36,50.46 44.57,51.47 43.46,53.19 43.03,55.64"/>
    </edge>
    <edge id=":J26_1" function="internal">
        <lane id=":J26_1_0" index="0" speed="13.89" length="14.43" shape="48.83,50.17 34.40,49.78"/>
    </edge>
    <edge id=":J26_2" function="internal">
        <lane id=":J26_2_0" index="0" speed="7.99" length="5.95" shape="48.83,50.17 44.98,49.52 43.25,48.42"/>
    </edge>
    <edge id=":J26_12" function="internal">
        <lane id=":J26_12_0" index="0" speed="7.99" length="8.26" shape="43.25,48.42 42.28,47.80 40.71,45.00 40.28,41.12"/>
    </edge>
    <edge id=":J26_3" function="internal">
        <lane id=":J26_3_0" index="0" speed="6.49" length="9.03" shape="43.47,41.22 43.75,43.68 44.74,45.46 46.46,46.56 48.91,46.97"/>
    </edge>
    <edge id=":J26_4" function="internal">
        <lane id=":J26_4_0" index="0" speed="13.89" length="14.42" shape="43.47,41.22 43.03,55.64"/>
    </edge>
    <edge id=":J26_5" function="internal">
        <lane id=":J26_5_0" index="0" speed="8.01" length="5.94" shape="43.47,41.22 42.80,45.06 41.70,46.78"/>
    </edge>
    <edge id=":J26_13" function="internal">
        <lane id=":J26_13_0" index="0" speed="8.01" length="8.28" shape="41.70,46.78 41.07,47.77 38.27,49.34 34.40,49.78"/>
    </edge>
    <edge id=":J26_6" function="internal">
        <lane id=":J26_6_0" index="0" speed="6.52" length="9.06" shape="34.50,46.58 36.96,46.30 38.74,45.30 39.85,43.57 40.28,41.12"/>
    </edge>
    <edge id=":J26_7" function="internal">
        <lane id=":J26_7_0" index="0" speed="13.89" length="14.42" shape="34.50,46.58 48.91,46.97"/>
    </edge>
    <edge id=":J26_8" function="internal">
        <lane id=":J26_8_0" index="0" speed="8.00" length="5.91" shape="34.50,46.58 38.33,47.24 40.03,48.33"/>
    </edge>
    <edge id=":J26_14" function="internal">
        <lane id=":J26_14_0" index="0" speed="8.00" length="8.29" shape="40.03,48.33 41.03,48.97 42.60,51.77 43.03,55.64"/>
    </edge>
    <edge id=":J26_9" function="internal">
        <lane id=":J26_9_0" index="0" speed="6.51" length="9.03" shape="39.83,55.54 39.56,53.08 38.56,51.30 36.84,50.20 34.40,49.78"/>
    </edge>
    <edge id=":J26_10" function="internal">
        <lane id=":J26_10_0" index="0" speed="13.89" length="14.42" shape="39.83,55.54 40.28,41.12"/>
    </edge>
    <edge id=":J26_11" function="internal">
        <lane id=":J26_11_0" index="0" speed="8.02" length="5.94" shape="39.83,55.54 40.50,51.71 41.61,49.99"/>
    </edge>
    <edge id=":J26_15" function="internal">
        <lane id=":J26_15_0" index="0" speed="8.02" length="8.28" shape="41.61,49.99 42.23,49.00 45.04,47.42 48.91,46.97"/>
    </edge>
    <edge id=":J27_0" function="internal">
        <lane id=":J27_0_0" index="0" speed="6.67" length="9.32" shape="106.33,51.35 103.78,51.72 101.94,52.80 100.81,54.57 100.39,57.04"/>
    </edge>
    <edge id=":J27_1" function="internal">
        <lane id=":J27_1_0" index="0" speed="13.89" length="14.60" shape="106.33,51.35 91.73,51.23"/>
    </edge>
    <edge id=":J27_2" function="internal">
        <lane id=":J27_2_0" index="0" speed="7.92" length="14.38" shape="106.33,51.35 102.40,50.82 99.64,49.15 98.06,46.34 97.65,42.40"/>
    </edge>
    <edge id=":J27_3" function="internal">
        <lane id=":J27_3_0" index="0" speed="6.41" length="9.04" shape="100.85,42.52 101.11,45.00 102.10,46.77 103.83,47.82 106.30,48.15"/>
    </edge>
    <edge id=":J27_4" function="internal">
        <lane id=":J27_4_0" index="0" speed="13.89" length="14.53" shape="100.85,42.52 100.39,57.04"/>
    </edge>
    <edge id=":J27_5" function="internal">
        <lane id=":J27_5_0" index="0" speed="8.08" length="5.95" shape="100.85,42.52 100.15,46.41 99.07,48.10"/>
    </edge>
    <edge id=":J27_12" function="internal">
        <lane id=":J27_12_0" index="0" speed="8.08" length="8.39" shape="99.07,48.10 98.39,49.16 95.58,50.77 91.73,51.23"/>
    </edge>
    <edge id=":J27_6" function="internal">
        <lane id=":J27_6_0" index="0" speed="6.61" length="9.23" shape="91.80,48.03 94.28,47.73 96.08,46.69 97.20,44.91 97.65,42.40"/>
    </edge>
    <edge id=":J27_7" function="internal">
        <lane id=":J27_7_0" index="0" speed="13.89" length="14.50" shape="91.80,48.03 106.30,48.15"/>
    </edge>
    <edge id=":J27_8" function="internal">
        <lane id=":J27_8_0" index="0" speed="8.00" length="14.19" shape="91.80,48.03 95.64,48.68 98.35,50.39 99.93,53.18 100.39,57.04"/>
    </edge>
    <edge id=":J27_9" function="internal">
        <lane id=":J27_9_0" index="0" speed="6.51" length="9.03" shape="97.19,56.97 96.90,54.51 95.89,52.73 94.17,51.64 91.73,51.23"/>
    </edge>
    <edge id=":J27_10" function="internal">
        <lane id=":J27_10_0" index="0" speed="13.89" length="14.58" shape="97.19,56.97 97.65,42.40"/>
    </edge>
    <edge id=":J27_11" function="internal">
        <lane id=":J27_11_0" index="0" speed="8.14" length="6.00" shape="97.19,56.97 97.84,53.14 98.97,51.34"/>
    </edge>
    <edge id=":J27_13" function="internal">
        <lane id=":J27_13_0" index="0" speed="8.14" length="8.36" shape="98.97,51.34 99.57,50.39 102.39,48.73 106.30,48.15"/>
    </edge>
    <edge id=":J28_0" function="internal">
        <lane id=":J28_0_0" index="0" speed="6.50" length="9.04" shape="47.63,89.88 45.17,90.17 43.40,91.18 42.31,92.90 41.90,95.34"/>
    </edge>
    <edge id=":J28_1" function="internal">
        <lane id=":J28_1_0" index="0" speed="13.89" length="14.42" shape="47.63,89.88 33.22,89.49"/>
    </edge>
    <edge id=":J28_2" function="internal">
        <lane id=":J28_2_0" index="0" speed="7.99" length="5.95" shape="47.63,89.88 43.79,89.23 42.06,88.13"/>
    </edge>
    <edge id=":J28_12" function="internal">
        <lane id=":J28_12_0" index="0" speed="7.99" length="8.26" shape="42.06,88.13 41.08,87.51 39.51,84.71 39.08,80.84"/>
    </edge>
    <edge id=":J28_3" function="internal">
        <lane id=":J28_3_0" index="0" speed="6.50" length="9.03" shape="42.28,80.93 42.55,83.40 43.55,85.17 45.27,86.27 47.71,86.68"/>
    </edge>
    <edge id=":J28_4" function="internal">
        <lane id=":J28_4_0" index="0" speed="13.89" length="14.41" shape="42.28,80.93 41.90,95.34"/>
    </edge>
    <edge id=":J28_5" function="internal">
        <lane id=":J28_5_0" index="0" speed="8.01" length="14.20" shape="42.28,80.93 41.61,84.77 39.88,87.48 37.08,89.05 33.22,89.49"/>
    </edge>
    <edge id=":J28_6" function="internal">
        <lane id=":J28_6_0" index="0" speed="6.52" length="9.05" shape="33.31,86.29 35.77,86.01 37.55,85.01 38.65,83.29 39.08,80.84"/>
    </edge>
    <edge id=":J28_7" function="internal">
        <lane id=":J28_7_0" index="0" speed="13.89" length="14.41" shape="33.31,86.29 47.71,86.68"/>
    </edge>
    <edge id=":J28_8" function="internal">
        <lane id=":J28_8_0" index="0" speed="8.03" length="5.91" shape="33.31,86.29 37.14,86.95 38.85,88.04"/>
    </edge>
    <edge id=":J28_13" function="internal">
        <lane id=":J28_13_0" index="0" speed="8.03" length="8.30" shape="38.85,88.04 39.85,88.68 41.44,91.48 41.90,95.34"/>
    </edge>
    <edge id=":J28_9" function="internal">
        <lane id=":J28_9_0" index="0" speed="6.54" length="9.07" shape="38.70,95.27 38.41,92.80 37.39,91.02 35.67,89.91 33.22,89.49"/>
    </edge>
    <edge id=":J28_10" function="internal">
        <lane id=":J28_10_0" index="0" speed="13.89" length="14.44" shape="38.70,95.27 39.08,80.84"/>
    </edge>
    <edge id=":J28_11" function="internal">
        <lane id=":J28_11_0" index="0" speed="8.00" length="14.21" shape="38.70,95.27 39.34,91.43 41.05,88.72 43.84,87.13 47.71,86.68"/>
    </edge>
    <edge id=":J29_0" function="internal">
        <lane id=":J29_0_0" index="0" speed="6.80" length="9.48" shape="50.30,11.46 47.70,11.89 45.82,13.01 44.66,14.81 44.22,17.29"/>
    </edge>
    <edge id=":J29_1" function="internal">
        <lane id=":J29_1_0" index="0" speed="13.89" length="14.79" shape="50.30,11.46 35.51,11.34"/>
    </edge>
    <edge id=":J29_2" function="internal">
        <lane id=":J29_2_0" index="0" speed="7.89" length="14.44" shape="50.30,11.46 46.33,11.02 43.53,9.40 41.91,6.61 41.46,2.65"/>
    </edge>
    <edge id=":J29_3" function="internal">
        <lane id=":J29_3_0" index="0" speed="6.37" length="9.04" shape="44.66,2.74 44.94,5.23 45.96,6.97 47.71,7.98 50.19,8.26"/>
    </edge>
    <edge id=":J29_4" function="internal">
        <lane id=":J29_4_0" index="0" speed="13.89" length="14.55" shape="44.66,2.74 44.22,17.29"/>
    </edge>
    <edge id=":J29_5" function="internal">
        <lane id=":J29_5_0" index="0" speed="8.00" length="6.03" shape="44.66,2.74 43.99,6.67 42.89,8.39"/>
    </edge>
    <edge id=":J29_12" function="internal">
        <lane id=":J29_12_0" index="0" speed="8.00" length="8.36" shape="42.89,8.39 42.24,9.41 39.41,10.97 35.51,11.34"/>
    </edge>
    <edge id=":J29_6" function="internal">
        <lane id=":J29_6_0" index="0" speed="6.50" length="9.15" shape="35.67,8.14 38.14,7.90 39.93,6.91 41.04,5.16 41.46,2.65"/>
    </edge>
    <edge id=":J29_7" function="internal">
        <lane id=":J29_7_0" index="0" speed="13.89" length="14.53" shape="35.67,8.14 50.19,8.26"/>
    </edge>
    <edge id=":J29_8" function="internal">
        <lane id=":J29_8_0" index="0" speed="8.06" length="14.22" shape="35.67,8.14 39.51,8.88 42.21,10.65 43.78,13.45 44.22,17.29"/>
    </edge>
    <edge id=":J29_9" function="internal">
        <lane id=":J29_9_0" index="0" speed="6.58" length="9.13" shape="41.02,17.19 40.74,14.74 39.73,12.94 37.98,11.81 35.51,11.34"/>
    </edge>
    <edge id=":J29_10" function="internal">
        <lane id=":J29_10_0" index="0" speed="13.89" length="14.55" shape="41.02,17.19 41.46,2.65"/>
    </edge>
    <edge id=":J29_11" function="internal">
        <lane id=":J29_11_0" index="0" speed="8.25" length="5.90" shape="41.02,17.19 41.69,13.39 42.79,11.67"/>
    </edge>
    <edge id=":J29_13" function="internal">
        <lane id=":J29_13_0" index="0" speed="8.25" length="8.50" shape="42.79,11.67 43.45,10.64 46.28,8.93 50.19,8.26"/>
    </edge>
    <edge id=":J30_0" function="internal">
        <lane id=":J30_0_0" index="0" speed="6.08" length="7.75" shape="99.69,86.37 99.34,88.46 98.40,89.94 96.88,90.80 94.77,91.05"/>
    </edge>
    <edge id=":J30_1" function="internal">
        <lane id=":J30_1_0" index="0" speed="3.90" length="2.58" shape="94.85,87.85 95.55,87.77 96.06,87.48 96.37,86.99 96.49,86.29"/>
    </edge>
    <edge id=":J31_0" function="internal">
        <lane id=":J31_0_0" index="0" speed="6.07" length="8.16" shape="97.13,6.71 99.37,6.96 100.95,7.88 101.85,9.46 102.08,11.70"/>
    </edge>
    <edge id=":J31_1" function="internal">
        <lane id=":J31_1_0" index="0" speed="3.90" length="2.72" shape="98.88,11.58 98.81,10.83 98.51,10.30 97.98,9.99 97.23,9.91"/>
    </edge>
    <edge id=":J32_0" function="internal">
        <lane id=":J32_0_0" index="0" speed="6.07" length="7.88" shape="-6.25,88.36 -8.38,87.99 -9.87,87.03 -10.71,85.47 -10.90,83.31"/>
    </edge>
    <edge id=":J32_1" function="internal">
        <lane id=":J32_1_0" index="0" speed="3.90" length="2.63" shape="-7.71,83.48 -7.64,84.20 -7.36,84.72 -6.87,85.04 -6.15,85.16"/>
    </edge>
    <edge id=":J33_0" function="internal">
        <lane id=":J33_0_0" index="0" speed="3.90" length="2.58" shape="-2.31,9.48 -3.02,9.54 -3.53,9.82 -3.85,10.30 -3.99,11.00"/>
    </edge>
    <edge id=":J33_1" function="internal">
        <lane id=":J33_1_0" index="0" speed="6.08" length="7.74" shape="-7.18,10.84 -6.78,8.76 -5.81,7.30 -4.27,6.48 -2.15,6.28"/>
    </edge>
    <edge id=":J34_0" function="internal">
        <lane id=":J34_0_0" index="0" speed="6.54" length="9.13" shape="51.42,-35.65 48.96,-35.37 47.18,-34.35 46.07,-32.59 45.65,-30.10"/>
    </edge>
    <edge id=":J34_1" function="internal">
        <lane id=":J34_1_0" index="0" speed="13.89" length="14.45" shape="51.42,-35.65 36.96,-35.83"/>
    </edge>
    <edge id=":J34_2" function="internal">
        <lane id=":J34_2_0" index="0" speed="13.89" length="14.56" shape="36.95,-39.03 51.51,-38.85"/>
    </edge>
    <edge id=":J34_3" function="internal">
        <lane id=":J34_3_0" index="0" speed="7.94" length="6.12" shape="36.95,-39.03 40.86,-38.48 42.71,-37.36"/>
    </edge>
    <edge id=":J34_6" function="internal">
        <lane id=":J34_6_0" index="0" speed="7.94" length="8.21" shape="42.71,-37.36 43.61,-36.82 45.21,-34.02 45.65,-30.10"/>
    </edge>
    <edge id=":J34_4" function="internal">
        <lane id=":J34_4_0" index="0" speed="6.43" length="9.03" shape="42.45,-30.20 42.17,-32.67 41.16,-34.43 39.43,-35.48 36.96,-35.83"/>
    </edge>
    <edge id=":J34_5" function="internal">
        <lane id=":J34_5_0" index="0" speed="8.03" length="14.28" shape="42.45,-30.20 43.12,-34.08 44.85,-36.82 47.65,-38.41 51.51,-38.85"/>
    </edge>

    <edge id="-E18" from="J17" to="J16" priority="-1">
        <lane id="-E18_0" index="0" speed="13.89" length="62.78" shape="159.36,56.67 157.94,119.44"/>
    </edge>
    <edge id="-E19" from="J18" to="J17" priority="-1">
        <lane id="-E19_0" index="0" speed="13.89" length="73.23" shape="162.05,-30.87 159.75,42.32"/>
    </edge>
    <edge id="-E24" from="J23" to="J22" priority="-1">
        <lane id="-E24_0" index="0" speed="13.89" length="73.11" shape="-59.27,39.26 -58.44,-33.85"/>
    </edge>
    <edge id="-E25" from="J12" to="J23" priority="-1">
        <lane id="-E25_0" index="0" speed="13.89" length="62.63" shape="-58.21,116.41 -59.23,53.79"/>
    </edge>
    <edge id="-E29" from="J25" to="J23" priority="-1">
        <lane id="-E29_0" index="0" speed="13.89" length="35.78" shape="-14.70,48.49 -50.48,48.15"/>
    </edge>
    <edge id="-E30" from="J26" to="J25" priority="-1">
        <lane id="-E30_0" index="0" speed="13.89" length="34.55" shape="34.40,49.78 -0.13,48.77"/>
    </edge>
    <edge id="-E31" from="J27" to="J26" priority="-1">
        <lane id="-E31_0" index="0" speed="13.89" length="42.91" shape="91.73,51.23 48.83,50.17"/>
    </edge>
    <edge id="-E32" from="J17" to="J27" priority="-1">
        <lane id="-E32_0" index="0" speed="13.89" length="44.32" shape="150.64,51.00 106.33,51.35"/>
    </edge>
    <edge id="-E33" from="J28" to="J14" priority="-1">
        <lane id="-E33_0" index="0" speed="13.89" length="18.16" shape="41.90,95.34 41.51,113.50"/>
    </edge>
    <edge id="-E34" from="J26" to="J28" priority="-1">
        <lane id="-E34_0" index="0" speed="13.89" length="25.31" shape="43.03,55.64 42.28,80.93"/>
    </edge>
    <edge id="-E35" from="J29" to="J26" priority="-1">
        <lane id="-E35_0" index="0" speed="13.89" length="23.95" shape="44.22,17.29 43.47,41.22"/>
    </edge>
    <edge id="-E37" from="J30" to="J28" priority="-1">
        <lane id="-E37_0" index="0" speed="13.89" length="47.15" shape="94.77,91.05 47.63,89.88"/>
    </edge>
    <edge id="-E38" from="J27" to="J30" priority="-1">
        <lane id="-E38_0" index="0" speed="13.89" length="29.33" shape="100.39,57.04 99.69,86.37"/>
    </edge>
    <edge id="-E39" from="J31" to="J27" priority="-1">
        <lane id="-E39_0" index="0" speed="13.89" length="30.84" shape="102.08,11.70 100.85,42.52"/>
    </edge>
    <edge id="-E40" from="J29" to="J31" priority="-1">
        <lane id="-E40_0" index="0" speed="13.89" length="46.96" shape="50.19,8.26 97.13,6.71"/>
    </edge>
    <edge id="-E41" from="J32" to="J28" priority="-1">
        <lane id="-E41_0" index="0" speed="13.89" length="39.48" shape="-6.15,85.16 33.31,86.29"/>
    </edge>
    <edge id="-E42" from="J25" to="J32" priority="-1">
        <lane id="-E42_0" index="0" speed="13.89" length="29.14" shape="-6.14,54.38 -7.71,83.48"/>
    </edge>
    <edge id="-E43" from="J33" to="J25" priority="-1">
        <lane id="-E43_0" index="0" speed="13.89" length="28.82" shape="-3.99,11.00 -5.39,39.78"/>
    </edge>
    <edge id="-E44" from="J29" to="J33" priority="-1">
        <lane id="-E44_0" index="0" speed="13.89" length="37.86" shape="35.51,11.34 -2.31,9.48"/>
    </edge>
    <edge id="-E45" from="J14" to="J12" priority="-1">
        <lane id="-E45_0" index="0" speed="13.89" length="86.04" shape="32.56,122.19 -53.47,121.13"/>
    </edge>
    <edge id="-E46" from="J34" to="J29" priority="-1">
        <lane id="-E46_0" index="0" speed="13.89" length="32.86" shape="45.65,-30.10 44.66,2.74"/>
    </edge>
    <edge id="-E47" from="J22" to="J34" priority="-1">
        <lane id="-E47_0" index="0" speed="13.89" length="90.61" shape="-53.66,-38.59 36.95,-39.03"/>
    </edge>
    <edge id="-E48" from="J18" to="J34" priority="-1">
        <lane id="-E48_0" index="0" speed="13.89" length="105.92" shape="157.30,-32.62 51.42,-35.65"/>
    </edge>
    <edge id="-E49" from="J16" to="J14" priority="-1">
        <lane id="-E49_0" index="0" speed="13.89" length="106.14" shape="153.06,124.13 46.94,122.40"/>
    </edge>
    <edge id="E18" from="J16" to="J17" priority="-1">
        <lane id="E18_0" index="0" speed="13.89" length="62.78" shape="154.74,119.36 156.17,56.60"/>
    </edge>
    <edge id="E19" from="J17" to="J18" priority="-1">
        <lane id="E19_0" index="0" speed="13.89" length="73.23" shape="156.55,42.22 158.85,-30.97"/>
    </edge>
    <edge id="E24" from="J22" to="J23" priority="-1">
        <lane id="E24_0" index="0" speed="13.89" length="73.11" shape="-55.24,-33.81 -56.07,39.29"/>
    </edge>
    <edge id="E25" from="J23" to="J12" priority="-1">
        <lane id="E25_0" index="0" speed="13.89" length="62.63" shape="-56.03,53.74 -55.01,116.35"/>
    </edge>
    <edge id="E29" from="J23" to="J25" priority="-1">
        <lane id="E29_0" index="0" speed="13.89" length="35.78" shape="-50.45,44.95 -14.67,45.29"/>
    </edge>
    <edge id="E30" from="J25" to="J26" priority="-1">
        <lane id="E30_0" index="0" speed="13.89" length="34.55" shape="-0.03,45.57 34.50,46.58"/>
    </edge>
    <edge id="E31" from="J26" to="J27" priority="-1">
        <lane id="E31_0" index="0" speed="13.89" length="42.91" shape="48.91,46.97 91.80,48.03"/>
    </edge>
    <edge id="E32" from="J27" to="J17" priority="-1">
        <lane id="E32_0" index="0" speed="13.89" length="44.32" shape="106.30,48.15 150.62,47.80"/>
    </edge>
    <edge id="E33" from="J14" to="J28" priority="-1">
        <lane id="E33_0" index="0" speed="13.89" length="18.16" shape="38.31,113.43 38.70,95.27"/>
    </edge>
    <edge id="E34" from="J28" to="J26" priority="-1">
        <lane id="E34_0" index="0" speed="13.89" length="25.31" shape="39.08,80.84 39.83,55.54"/>
    </edge>
    <edge id="E35" from="J26" to="J29" priority="-1">
        <lane id="E35_0" index="0" speed="13.89" length="23.95" shape="40.28,41.12 41.02,17.19"/>
    </edge>
    <edge id="E37" from="J28" to="J30" priority="-1">
        <lane id="E37_0" index="0" speed="13.89" length="47.15" shape="47.71,86.68 94.85,87.85"/>
    </edge>
    <edge id="E38" from="J30" to="J27" priority="-1">
        <lane id="E38_0" index="0" speed="13.89" length="29.33" shape="96.49,86.29 97.19,56.97"/>
    </edge>
    <edge id="E39" from="J27" to="J31" priority="-1">
        <lane id="E39_0" index="0" speed="13.89" length="30.84" shape="97.65,42.40 98.88,11.58"/>
    </edge>
    <edge id="E40" from="J31" to="J29" priority="-1">
        <lane id="E40_0" index="0" speed="13.89" length="46.96" shape="97.23,9.91 50.30,11.46"/>
    </edge>
    <edge id="E41" from="J28" to="J32" priority="-1">
        <lane id="E41_0" index="0" speed="13.89" length="39.48" shape="33.22,89.49 -6.25,88.36"/>
    </edge>
    <edge id="E42" from="J32" to="J25" priority="-1">
        <lane id="E42_0" index="0" speed="13.89" length="29.14" shape="-10.90,83.31 -9.33,54.21"/>
    </edge>
    <edge id="E43" from="J25" to="J33" priority="-1">
        <lane id="E43_0" index="0" speed="13.89" length="28.82" shape="-8.59,39.63 -7.18,10.84"/>
    </edge>
    <edge id="E44" from="J33" to="J29" priority="-1">
        <lane id="E44_0" index="0" speed="13.89" length="37.86" shape="-2.15,6.28 35.67,8.14"/>
    </edge>
    <edge id="E45" from="J12" to="J14" priority="-1">
        <lane id="E45_0" index="0" speed="13.89" length="86.04" shape="-53.43,117.93 32.60,118.99"/>
    </edge>
    <edge id="E46" from="J29" to="J34" priority="-1">
        <lane id="E46_0" index="0" speed="13.89" length="32.86" shape="41.46,2.65 42.45,-30.20"/>
    </edge>
    <edge id="E47" from="J34" to="J22" priority="-1">
        <lane id="E47_0" index="0" speed="13.89" length="90.61" shape="36.96,-35.83 -53.64,-35.39"/>
    </edge>
    <edge id="E48" from="J34" to="J18" priority="-1">
        <lane id="E48_0" index="0" speed="13.89" length="105.92" shape="51.51,-38.85 157.39,-35.82"/>