<?xml version="1.0" encoding="UTF-8"?>

<configuration>
	<input>
		<net-file value="ClusterRerouting.net.xml"/>
		<route-files value="ClusterRerouting.rou.xml"/>
	</input>
</configuration>